* NGSPICE file created from rx_frontend.ext - technology: gf180mcuD

.subckt Unnamed_aa715e86 w_n1078_n1609# a_n86_n1181# a_n142_n1389# a_n292_n1181# VSUBS
X0 w_n1078_n1609# w_n1078_n1609# w_n1078_n1609# w_n1078_n1609# pfet_03v3 ad=7.3p pd=21.46u as=29.2p ps=85.84u w=10u l=0.28u
X1 a_n292_n1181# a_n142_n1389# a_n86_n1181# w_n1078_n1609# pfet_03v3 ad=7.5p pd=21.5u as=4.3p ps=10.86u w=10u l=0.28u
X2 a_n86_n1181# a_n142_n1389# a_n292_n1181# w_n1078_n1609# pfet_03v3 ad=4.3p pd=10.86u as=7.5p ps=21.5u w=10u l=0.28u
X3 w_n1078_n1609# w_n1078_n1609# w_n1078_n1609# w_n1078_n1609# pfet_03v3 ad=7.3p pd=21.46u as=0 ps=0 w=10u l=0.28u
C0 a_n142_n1389# a_n86_n1181# 0.29284f
C1 a_n292_n1181# w_n1078_n1609# 1.92553f
C2 a_n292_n1181# a_n86_n1181# 3.10568f
C3 a_n142_n1389# a_n292_n1181# 0.22425f
C4 w_n1078_n1609# a_n86_n1181# 0.53563f
C5 a_n142_n1389# w_n1078_n1609# 0.70401f
C6 a_n86_n1181# VSUBS 0.02943f
C7 a_n292_n1181# VSUBS 0.33447f
C8 a_n142_n1389# VSUBS 0.10135f
C9 w_n1078_n1609# VSUBS 22.767f
.ends

.subckt Unnamed_3c60cbf2 a_n370_n2390# a_n520_n2180# w_n1806_n3110# a_n314_n2180#
+ VSUBS
X0 w_n1806_n3110# w_n1806_n3110# w_n1806_n3110# w_n1806_n3110# nfet_03v3 ad=14.6p pd=41.46u as=58.4p ps=0.16584m w=20u l=0.28u
X1 w_n1806_n3110# w_n1806_n3110# w_n1806_n3110# w_n1806_n3110# nfet_03v3 ad=14.6p pd=41.46u as=0 ps=0 w=20u l=0.28u
X2 a_n520_n2180# a_n370_n2390# a_n314_n2180# w_n1806_n3110# nfet_03v3 ad=15p pd=41.5u as=8.6p ps=20.86u w=20u l=0.28u
X3 a_n314_n2180# a_n370_n2390# a_n520_n2180# w_n1806_n3110# nfet_03v3 ad=8.6p pd=20.86u as=15p ps=41.5u w=20u l=0.28u
X4 a_n520_n2180# a_n370_n2390# a_n314_n2180# w_n1806_n3110# nfet_03v3 ad=8.6p pd=20.86u as=8.6p ps=20.86u w=20u l=0.28u
X5 a_n314_n2180# a_n370_n2390# a_n520_n2180# w_n1806_n3110# nfet_03v3 ad=8.6p pd=20.86u as=8.6p ps=20.86u w=20u l=0.28u
C0 w_n1806_n3110# a_n520_n2180# 2.45671f
C1 a_n370_n2390# a_n314_n2180# 0.98475f
C2 a_n370_n2390# a_n520_n2180# 0.92695f
C3 w_n1806_n3110# a_n370_n2390# 1.5486f
C4 a_n314_n2180# a_n520_n2180# 11.3334f
C5 w_n1806_n3110# a_n314_n2180# 0.54015f
C6 a_n314_n2180# VSUBS 0.42154f
C7 a_n520_n2180# VSUBS 1.76105f
C8 a_n370_n2390# VSUBS 0.25367f
C9 w_n1806_n3110# VSUBS 7.40085f
.ends

.subckt Unnamed_36f005e6 a_n370_n2390# a_n520_n2180# w_n1806_n3110# a_n314_n2180#
+ VSUBS
X0 w_n1806_n3110# w_n1806_n3110# w_n1806_n3110# w_n1806_n3110# nfet_03v3 ad=14.6p pd=41.46u as=58.4p ps=0.16584m w=20u l=0.28u
X1 w_n1806_n3110# w_n1806_n3110# w_n1806_n3110# w_n1806_n3110# nfet_03v3 ad=14.6p pd=41.46u as=0 ps=0 w=20u l=0.28u
X2 a_n520_n2180# a_n370_n2390# a_n314_n2180# w_n1806_n3110# nfet_03v3 ad=15p pd=41.5u as=8.6p ps=20.86u w=20u l=0.28u
X3 a_n314_n2180# a_n370_n2390# a_n520_n2180# w_n1806_n3110# nfet_03v3 ad=8.6p pd=20.86u as=15p ps=41.5u w=20u l=0.28u
X4 a_n520_n2180# a_n370_n2390# a_n314_n2180# w_n1806_n3110# nfet_03v3 ad=8.6p pd=20.86u as=8.6p ps=20.86u w=20u l=0.28u
X5 a_n314_n2180# a_n370_n2390# a_n520_n2180# w_n1806_n3110# nfet_03v3 ad=8.6p pd=20.86u as=8.6p ps=20.86u w=20u l=0.28u
C0 w_n1806_n3110# a_n520_n2180# 2.45671f
C1 a_n370_n2390# a_n314_n2180# 0.98475f
C2 a_n370_n2390# a_n520_n2180# 0.92695f
C3 w_n1806_n3110# a_n370_n2390# 1.5486f
C4 a_n314_n2180# a_n520_n2180# 11.3334f
C5 w_n1806_n3110# a_n314_n2180# 0.54015f
C6 a_n314_n2180# VSUBS 0.42154f
C7 a_n520_n2180# VSUBS 1.76105f
C8 a_n370_n2390# VSUBS 0.25367f
C9 w_n1806_n3110# VSUBS 7.40085f
.ends

.subckt lna_block_62479d0d w_n1806_3170# VSUBS
XUnnamed_aa715e86_0 w_n1806_3170# w_n1806_3170# w_n1806_3170# w_n1806_3170# VSUBS
+ Unnamed_aa715e86
XUnnamed_3c60cbf2_0 Unnamed_3c60cbf2_0/a_n370_n2390# Unnamed_3c60cbf2_0/a_n520_n2180#
+ w_n1806_3170# w_n1806_3170# VSUBS Unnamed_3c60cbf2
XUnnamed_36f005e6_0 w_n1806_3170# w_n1806_3170# w_n1806_3170# w_n1806_3170# VSUBS
+ Unnamed_36f005e6
C0 w_n1806_3170# Unnamed_3c60cbf2_0/a_n370_n2390# 0.07625f
C1 w_n1806_3170# Unnamed_3c60cbf2_0/a_n520_n2180# 0.98588f
C2 Unnamed_3c60cbf2_0/a_n520_n2180# Unnamed_3c60cbf2_0/a_n370_n2390# -0.00122f
C3 Unnamed_3c60cbf2_0/a_n520_n2180# VSUBS 1.76105f
C4 Unnamed_3c60cbf2_0/a_n370_n2390# VSUBS 0.25367f
C5 w_n1806_3170# VSUBS 43.51971f
.ends

.subckt Unnamed_6ab50a26 w_n1578_n1410# a_n142_n689# VSUBS
X0 a_n86_n481# a_n142_n689# a_n292_n481# w_n1578_n1410# nfet_03v3 ad=1.72p pd=4.86u as=3p ps=9.5u w=4u l=0.28u
X1 w_n1578_n1410# w_n1578_n1410# w_n1578_n1410# w_n1578_n1410# nfet_03v3 ad=2.92p pd=9.46u as=11.68p ps=37.84u w=4u l=0.28u
X2 w_n1578_n1410# w_n1578_n1410# w_n1578_n1410# w_n1578_n1410# nfet_03v3 ad=2.92p pd=9.46u as=0 ps=0 w=4u l=0.28u
X3 a_n292_n481# a_n142_n689# a_n86_n481# w_n1578_n1410# nfet_03v3 ad=3p pd=9.5u as=1.72p ps=4.86u w=4u l=0.28u
C0 a_n86_n481# a_n142_n689# 0.16869f
C1 a_n86_n481# w_n1578_n1410# 0.30404f
C2 a_n292_n481# a_n86_n481# 1.48546f
C3 a_n142_n689# w_n1578_n1410# 0.66703f
C4 a_n292_n481# a_n142_n689# 0.10807f
C5 a_n292_n481# w_n1578_n1410# 0.60578f
C6 a_n86_n481# VSUBS 0.16188f
C7 a_n292_n481# VSUBS 0.47364f
C8 a_n142_n689# VSUBS 0.13155f
C9 w_n1578_n1410# VSUBS 3.89724f
.ends

.subckt Unnamed_23824e57 a_n86_n481# w_n1578_n1410# a_n142_n689# VSUBS
X0 a_n86_n481# a_n142_n689# a_n292_n481# w_n1578_n1410# nfet_03v3 ad=1.72p pd=4.86u as=3p ps=9.5u w=4u l=0.28u
X1 w_n1578_n1410# w_n1578_n1410# w_n1578_n1410# w_n1578_n1410# nfet_03v3 ad=2.92p pd=9.46u as=11.68p ps=37.84u w=4u l=0.28u
X2 w_n1578_n1410# w_n1578_n1410# w_n1578_n1410# w_n1578_n1410# nfet_03v3 ad=2.92p pd=9.46u as=0 ps=0 w=4u l=0.28u
X3 a_n292_n481# a_n142_n689# a_n86_n481# w_n1578_n1410# nfet_03v3 ad=3p pd=9.5u as=1.72p ps=4.86u w=4u l=0.28u
C0 a_n86_n481# a_n142_n689# 0.16869f
C1 a_n86_n481# w_n1578_n1410# 0.30404f
C2 a_n292_n481# a_n86_n481# 1.48546f
C3 a_n142_n689# w_n1578_n1410# 0.66703f
C4 a_n292_n481# a_n142_n689# 0.10807f
C5 a_n292_n481# w_n1578_n1410# 0.60578f
C6 a_n86_n481# VSUBS 0.16188f
C7 a_n292_n481# VSUBS 0.47364f
C8 a_n142_n689# VSUBS 0.13155f
C9 w_n1578_n1410# VSUBS 3.89724f
.ends

.subckt rx_frontend_62479d0d w_3076_60# w_n656_n7889# w_3076_n2880# VSUBS
Xlna_block_62479d0d_0 w_n656_n7889# VSUBS lna_block_62479d0d
XUnnamed_6ab50a26_0 w_3076_60# Unnamed_6ab50a26_0/a_n142_n689# VSUBS Unnamed_6ab50a26
XUnnamed_23824e57_0 Unnamed_23824e57_0/a_n86_n481# w_3076_n2880# Unnamed_23824e57_0/a_n142_n689#
+ VSUBS Unnamed_23824e57
C0 Unnamed_23824e57_0/a_n142_n689# w_n656_n7889# 0
C1 w_3076_60# w_n656_n7889# 0.06036f
C2 w_3076_n2880# w_n656_n7889# 0.025f
C3 Unnamed_23824e57_0/a_n86_n481# Unnamed_6ab50a26_0/a_n142_n689# 0
C4 w_3076_n2880# Unnamed_6ab50a26_0/a_n142_n689# 0.00247f
C5 Unnamed_23824e57_0/a_n142_n689# w_3076_60# 0
C6 Unnamed_6ab50a26_0/a_n142_n689# w_n656_n7889# 0
C7 w_3076_n2880# w_3076_60# 0.13841f
C8 Unnamed_23824e57_0/a_n86_n481# VSUBS 0.16188f
C9 Unnamed_23824e57_0/a_n292_n481# VSUBS 0.47364f $ **FLOATING
C10 Unnamed_23824e57_0/a_n142_n689# VSUBS 0.13155f
C11 w_3076_n2880# VSUBS 1.86494f
C12 Unnamed_6ab50a26_0/a_n86_n481# VSUBS 0.16188f $ **FLOATING
C13 Unnamed_6ab50a26_0/a_n292_n481# VSUBS 0.47364f $ **FLOATING
C14 Unnamed_6ab50a26_0/a_n142_n689# VSUBS 0.13155f
C15 w_3076_60# VSUBS 1.62101f
C16 lna_block_62479d0d_0/Unnamed_3c60cbf2_0/a_n520_n2180# VSUBS 1.76105f
C17 lna_block_62479d0d_0/Unnamed_3c60cbf2_0/a_n370_n2390# VSUBS 0.25367f
C18 w_n656_n7889# VSUBS 39.71084f
.ends

.subckt rx_frontend
Xrx_frontend_62479d0d_0 w_3076_60# w_n656_n7889# w_3076_n2880# VSUBS rx_frontend_62479d0d
X0 w_n656_n7889.t2 w_n656_n7889.t0 w_n656_n7889.t2 w_n656_n7889.t1 nfet_03v3 ad=8.6p pd=20.86u as=8.6p ps=20.86u w=0 l=0
X1 w_n656_n7889.t11 w_n656_n7889.t9 w_n656_n7889.t11 w_n656_n7889.t10 nfet_03v3 ad=15p pd=41.5u as=8.6p ps=20.86u w=0 l=0
X2 w_n656_n7889.t27 w_n656_n7889.t25 w_n656_n7889.t27 w_n656_n7889.t26 pfet_03v3 ad=4.3p pd=10.86u as=7.5p ps=21.5u w=0 l=0
X3 w_n656_n7889.t17 w_n656_n7889.t15 w_n656_n7889.t17 w_n656_n7889.t16 nfet_03v3 ad=14.6p pd=41.46u as=0 ps=0 w=0 l=0
X4 w_n656_n7889.t8 w_n656_n7889.t6 w_n656_n7889.t8 w_n656_n7889.t7 nfet_03v3 ad=8.6p pd=20.86u as=15p ps=41.5u w=0 l=0
X5 w_n656_n7889.t33 w_n656_n7889.t31 w_n656_n7889.t33 w_n656_n7889.t32 pfet_03v3 ad=7.3p pd=21.46u as=0 ps=0 w=0 l=0
X6 w_n656_n7889.t30 w_n656_n7889.t28 w_n656_n7889.t30 w_n656_n7889.t29 pfet_03v3 ad=7.5p pd=21.5u as=4.3p ps=10.86u w=0 l=0
X7 w_n656_n7889.t21 w_n656_n7889.t20 w_n656_n7889.t21 w_n656_n7889.t16 nfet_03v3 ad=14.6p pd=41.46u as=0 ps=0 w=0 l=0
X8 w_n656_n7889.t19 w_n656_n7889.t18 w_n656_n7889.t19 w_n656_n7889.t13 nfet_03v3 ad=14.6p pd=41.46u as=0 ps=0 w=0 l=0
X9 w_n656_n7889.t24 w_n656_n7889.t22 w_n656_n7889.t24 w_n656_n7889.t23 pfet_03v3 ad=7.3p pd=21.46u as=0 ps=0 w=0 l=0
X10 w_n656_n7889.t14 w_n656_n7889.t12 w_n656_n7889.t14 w_n656_n7889.t13 nfet_03v3 ad=14.6p pd=41.46u as=0 ps=0 w=0 l=0
X11 w_n656_n7889.t5 w_n656_n7889.t3 w_n656_n7889.t5 w_n656_n7889.t4 nfet_03v3 ad=8.6p pd=20.86u as=8.6p ps=20.86u w=0 l=0
R0 w_n656_n7889.n329 w_n656_n7889.n308 337.421
R1 w_n656_n7889.n346 w_n656_n7889.t9 282.5
R2 w_n656_n7889.n350 w_n656_n7889.t6 281.348
R3 w_n656_n7889.n90 w_n656_n7889.t18 278.678
R4 w_n656_n7889.n320 w_n656_n7889.t20 278.678
R5 w_n656_n7889.n147 w_n656_n7889.t15 278.678
R6 w_n656_n7889.n348 w_n656_n7889.t0 275.055
R7 w_n656_n7889.n352 w_n656_n7889.t3 275.055
R8 w_n656_n7889.n588 w_n656_n7889.t12 271.39
R9 w_n656_n7889.n604 w_n656_n7889.n87 266
R10 w_n656_n7889.n604 w_n656_n7889.n88 266
R11 w_n656_n7889.n310 w_n656_n7889.n309 266
R12 w_n656_n7889.n327 w_n656_n7889.n309 266
R13 w_n656_n7889.n330 w_n656_n7889.n141 266
R14 w_n656_n7889.n330 w_n656_n7889.n144 266
R15 w_n656_n7889.n676 w_n656_n7889.n675 254.506
R16 w_n656_n7889.n629 w_n656_n7889.n622 152.863
R17 w_n656_n7889.n674 w_n656_n7889.n1 152.863
R18 w_n656_n7889.n674 w_n656_n7889.n2 152.863
R19 w_n656_n7889.n66 w_n656_n7889.t28 152.758
R20 w_n656_n7889.n66 w_n656_n7889.t25 152.758
R21 w_n656_n7889.n4 w_n656_n7889.t31 148.321
R22 w_n656_n7889.n625 w_n656_n7889.t22 148.321
R23 w_n656_n7889.n85 w_n656_n7889.n84 135.589
R24 w_n656_n7889.n607 w_n656_n7889.n81 135.139
R25 w_n656_n7889.n307 w_n656_n7889.n153 101.889
R26 w_n656_n7889.n307 w_n656_n7889.n154 101.889
R27 w_n656_n7889.n221 w_n656_n7889.n205 101.889
R28 w_n656_n7889.n247 w_n656_n7889.n221 101.889
R29 w_n656_n7889.n285 w_n656_n7889.n152 101.889
R30 w_n656_n7889.n279 w_n656_n7889.n152 101.889
R31 w_n656_n7889.n219 w_n656_n7889.n203 101.889
R32 w_n656_n7889.n249 w_n656_n7889.n203 101.889
R33 w_n656_n7889.n350 w_n656_n7889.n349 85.9059
R34 w_n656_n7889.n675 w_n656_n7889.n0 82.6605
R35 w_n656_n7889.n588 w_n656_n7889.n587 77.3023
R36 w_n656_n7889.n158 w_n656_n7889.n156 70.1068
R37 w_n656_n7889.n242 w_n656_n7889.n240 70.1068
R38 w_n656_n7889.n182 w_n656_n7889.n180 70.1068
R39 w_n656_n7889.n209 w_n656_n7889.n207 70.1068
R40 w_n656_n7889.n248 w_n656_n7889.n204 68.8301
R41 w_n656_n7889.n308 w_n656_n7889.n151 68.8301
R42 w_n656_n7889.n329 w_n656_n7889.n328 65.725
R43 w_n656_n7889.n86 w_n656_n7889.n85 58.9973
R44 w_n656_n7889.n629 w_n656_n7889.n628 52.3429
R45 w_n656_n7889.n650 w_n656_n7889.n621 49.7208
R46 w_n656_n7889.n644 w_n656_n7889.n621 49.7208
R47 w_n656_n7889.n643 w_n656_n7889.n642 49.7208
R48 w_n656_n7889.n658 w_n656_n7889.n8 49.7208
R49 w_n656_n7889.n667 w_n656_n7889.n8 49.7208
R50 w_n656_n7889.n605 w_n656_n7889.n83 46.0594
R51 w_n656_n7889.n261 w_n656_n7889.n196 41.4018
R52 w_n656_n7889.n261 w_n656_n7889.n188 41.4018
R53 w_n656_n7889.n269 w_n656_n7889.n188 41.4018
R54 w_n656_n7889.n269 w_n656_n7889.n171 41.4018
R55 w_n656_n7889.n291 w_n656_n7889.n171 41.4018
R56 w_n656_n7889.n291 w_n656_n7889.n162 41.4018
R57 w_n656_n7889.n300 w_n656_n7889.n162 41.4018
R58 w_n656_n7889.n336 w_n656_n7889.n124 41.4018
R59 w_n656_n7889.n539 w_n656_n7889.n124 41.4018
R60 w_n656_n7889.n545 w_n656_n7889.n119 41.4018
R61 w_n656_n7889.n573 w_n656_n7889.n101 41.4018
R62 w_n656_n7889.n644 w_n656_n7889.t29 39.1553
R63 w_n656_n7889.n658 w_n656_n7889.t26 39.1553
R64 w_n656_n7889.n573 w_n656_n7889.n94 35.9679
R65 w_n656_n7889.n539 w_n656_n7889.t10 35.7091
R66 w_n656_n7889.n513 w_n656_n7889.t7 33.3803
R67 w_n656_n7889.n559 w_n656_n7889.n107 32.0865
R68 w_n656_n7889.n530 w_n656_n7889.t1 29.4989
R69 w_n656_n7889.n530 w_n656_n7889.t4 29.4989
R70 w_n656_n7889.n627 w_n656_n7889.t23 25.4822
R71 w_n656_n7889.t32 w_n656_n7889.n0 25.4822
R72 w_n656_n7889.n328 w_n656_n7889.t16 24.3237
R73 w_n656_n7889.t13 w_n656_n7889.n595 24.3237
R74 w_n656_n7889.n650 w_n656_n7889.t23 24.2392
R75 w_n656_n7889.n667 w_n656_n7889.t32 24.2392
R76 w_n656_n7889.n248 w_n656_n7889.n220 21.2187
R77 w_n656_n7889.n164 w_n656_n7889.n151 21.2187
R78 w_n656_n7889.n220 w_n656_n7889.n196 20.1836
R79 w_n656_n7889.n300 w_n656_n7889.n164 20.1836
R80 w_n656_n7889.n595 w_n656_n7889.n83 19.6661
R81 w_n656_n7889.n336 w_n656_n7889.t16 17.0785
R82 w_n656_n7889.n223 w_n656_n7889.n205 15.5561
R83 w_n656_n7889.n223 w_n656_n7889.n197 15.5561
R84 w_n656_n7889.n234 w_n656_n7889.n197 15.5561
R85 w_n656_n7889.n234 w_n656_n7889.n189 15.5561
R86 w_n656_n7889.n231 w_n656_n7889.n189 15.5561
R87 w_n656_n7889.n231 w_n656_n7889.n172 15.5561
R88 w_n656_n7889.n172 w_n656_n7889.n161 15.5561
R89 w_n656_n7889.n301 w_n656_n7889.n161 15.5561
R90 w_n656_n7889.n301 w_n656_n7889.n154 15.5561
R91 w_n656_n7889.n247 w_n656_n7889.n195 15.5561
R92 w_n656_n7889.n262 w_n656_n7889.n195 15.5561
R93 w_n656_n7889.n262 w_n656_n7889.n191 15.5561
R94 w_n656_n7889.n268 w_n656_n7889.n191 15.5561
R95 w_n656_n7889.n268 w_n656_n7889.n170 15.5561
R96 w_n656_n7889.n292 w_n656_n7889.n170 15.5561
R97 w_n656_n7889.n292 w_n656_n7889.n166 15.5561
R98 w_n656_n7889.n299 w_n656_n7889.n166 15.5561
R99 w_n656_n7889.n299 w_n656_n7889.n153 15.5561
R100 w_n656_n7889.n219 w_n656_n7889.n206 15.5561
R101 w_n656_n7889.n206 w_n656_n7889.n198 15.5561
R102 w_n656_n7889.n198 w_n656_n7889.n187 15.5561
R103 w_n656_n7889.n270 w_n656_n7889.n187 15.5561
R104 w_n656_n7889.n271 w_n656_n7889.n270 15.5561
R105 w_n656_n7889.n271 w_n656_n7889.n173 15.5561
R106 w_n656_n7889.n276 w_n656_n7889.n173 15.5561
R107 w_n656_n7889.n276 w_n656_n7889.n163 15.5561
R108 w_n656_n7889.n279 w_n656_n7889.n163 15.5561
R109 w_n656_n7889.n249 w_n656_n7889.n199 15.5561
R110 w_n656_n7889.n260 w_n656_n7889.n199 15.5561
R111 w_n656_n7889.n260 w_n656_n7889.n200 15.5561
R112 w_n656_n7889.n200 w_n656_n7889.n190 15.5561
R113 w_n656_n7889.n190 w_n656_n7889.n174 15.5561
R114 w_n656_n7889.n290 w_n656_n7889.n174 15.5561
R115 w_n656_n7889.n290 w_n656_n7889.n175 15.5561
R116 w_n656_n7889.n175 w_n656_n7889.n165 15.5561
R117 w_n656_n7889.n285 w_n656_n7889.n165 15.5561
R118 w_n656_n7889.n310 w_n656_n7889.n142 15.5561
R119 w_n656_n7889.n315 w_n656_n7889.n142 15.5561
R120 w_n656_n7889.n315 w_n656_n7889.n126 15.5561
R121 w_n656_n7889.n126 w_n656_n7889.n118 15.5561
R122 w_n656_n7889.n546 w_n656_n7889.n118 15.5561
R123 w_n656_n7889.n546 w_n656_n7889.n114 15.5561
R124 w_n656_n7889.n558 w_n656_n7889.n114 15.5561
R125 w_n656_n7889.n558 w_n656_n7889.n109 15.5561
R126 w_n656_n7889.n554 w_n656_n7889.n109 15.5561
R127 w_n656_n7889.n554 w_n656_n7889.n93 15.5561
R128 w_n656_n7889.n598 w_n656_n7889.n93 15.5561
R129 w_n656_n7889.n598 w_n656_n7889.n88 15.5561
R130 w_n656_n7889.n327 w_n656_n7889.n143 15.5561
R131 w_n656_n7889.n143 w_n656_n7889.n127 15.5561
R132 w_n656_n7889.n538 w_n656_n7889.n127 15.5561
R133 w_n656_n7889.n538 w_n656_n7889.n128 15.5561
R134 w_n656_n7889.n128 w_n656_n7889.n121 15.5561
R135 w_n656_n7889.n531 w_n656_n7889.n121 15.5561
R136 w_n656_n7889.n531 w_n656_n7889.n106 15.5561
R137 w_n656_n7889.n563 w_n656_n7889.n106 15.5561
R138 w_n656_n7889.n563 w_n656_n7889.n102 15.5561
R139 w_n656_n7889.n572 w_n656_n7889.n102 15.5561
R140 w_n656_n7889.n572 w_n656_n7889.n95 15.5561
R141 w_n656_n7889.n95 w_n656_n7889.n87 15.5561
R142 w_n656_n7889.n337 w_n656_n7889.n141 15.5561
R143 w_n656_n7889.n338 w_n656_n7889.n337 15.5561
R144 w_n656_n7889.n338 w_n656_n7889.n125 15.5561
R145 w_n656_n7889.n339 w_n656_n7889.n125 15.5561
R146 w_n656_n7889.n339 w_n656_n7889.n120 15.5561
R147 w_n656_n7889.n529 w_n656_n7889.n120 15.5561
R148 w_n656_n7889.n529 w_n656_n7889.n113 15.5561
R149 w_n656_n7889.n335 w_n656_n7889.n144 15.5561
R150 w_n656_n7889.n335 w_n656_n7889.n122 15.5561
R151 w_n656_n7889.n540 w_n656_n7889.n122 15.5561
R152 w_n656_n7889.n541 w_n656_n7889.n540 15.5561
R153 w_n656_n7889.n544 w_n656_n7889.n541 15.5561
R154 w_n656_n7889.n544 w_n656_n7889.n110 15.5561
R155 w_n656_n7889.n560 w_n656_n7889.n110 15.5561
R156 w_n656_n7889.n561 w_n656_n7889.n560 15.5561
R157 w_n656_n7889.n561 w_n656_n7889.n76 15.5561
R158 w_n656_n7889.n77 w_n656_n7889.n76 15.5561
R159 w_n656_n7889.n78 w_n656_n7889.n77 15.5561
R160 w_n656_n7889.n81 w_n656_n7889.n78 15.5561
R161 w_n656_n7889.n596 w_n656_n7889.t13 15.0085
R162 w_n656_n7889.n649 w_n656_n7889.n622 14.0005
R163 w_n656_n7889.n649 w_n656_n7889.n623 14.0005
R164 w_n656_n7889.n645 w_n656_n7889.n623 14.0005
R165 w_n656_n7889.n645 w_n656_n7889.n637 14.0005
R166 w_n656_n7889.n637 w_n656_n7889.n13 14.0005
R167 w_n656_n7889.n659 w_n656_n7889.n13 14.0005
R168 w_n656_n7889.n659 w_n656_n7889.n9 14.0005
R169 w_n656_n7889.n666 w_n656_n7889.n9 14.0005
R170 w_n656_n7889.n666 w_n656_n7889.n1 14.0005
R171 w_n656_n7889.n651 w_n656_n7889.n619 14.0005
R172 w_n656_n7889.n651 w_n656_n7889.n620 14.0005
R173 w_n656_n7889.n638 w_n656_n7889.n620 14.0005
R174 w_n656_n7889.n641 w_n656_n7889.n638 14.0005
R175 w_n656_n7889.n641 w_n656_n7889.n14 14.0005
R176 w_n656_n7889.n657 w_n656_n7889.n14 14.0005
R177 w_n656_n7889.n657 w_n656_n7889.n7 14.0005
R178 w_n656_n7889.n668 w_n656_n7889.n7 14.0005
R179 w_n656_n7889.n668 w_n656_n7889.n2 14.0005
R180 w_n656_n7889.n514 w_n656_n7889.n512 13.9033
R181 w_n656_n7889.n575 w_n656_n7889.n574 13.5144
R182 w_n656_n7889.n605 w_n656_n7889.n86 12.9384
R183 w_n656_n7889.n506 w_n656_n7889.n346 12.7255
R184 w_n656_n7889.n67 w_n656_n7889.n66 12.5005
R185 w_n656_n7889.n355 w_n656_n7889.n354 12.5005
R186 w_n656_n7889.n353 w_n656_n7889.n347 12.5005
R187 w_n656_n7889.n545 w_n656_n7889.t1 11.9034
R188 w_n656_n7889.n559 w_n656_n7889.t4 11.9034
R189 w_n656_n7889.n354 w_n656_n7889.n353 11.6805
R190 w_n656_n7889.t29 w_n656_n7889.n643 10.5661
R191 w_n656_n7889.n642 w_n656_n7889.t26 10.5661
R192 w_n656_n7889.n592 w_n656_n7889.n80 10.5344
R193 w_n656_n7889.n595 w_n656_n7889.n594 10.4005
R194 w_n656_n7889.n606 w_n656_n7889.n82 10.2954
R195 w_n656_n7889.n562 w_n656_n7889.n107 9.31579
R196 w_n656_n7889.n348 w_n656_n7889.n346 9.1985
R197 w_n656_n7889.n352 w_n656_n7889.n351 8.9795
R198 w_n656_n7889.n589 w_n656_n7889.n588 8.0005
R199 w_n656_n7889.n351 w_n656_n7889.n137 8.0005
R200 w_n656_n7889.n603 w_n656_n7889.n89 7.18485
R201 w_n656_n7889.n323 w_n656_n7889.n322 7.18485
R202 w_n656_n7889.n332 w_n656_n7889.n331 7.18485
R203 w_n656_n7889.n670 w_n656_n7889.n2 6.3005
R204 w_n656_n7889.n2 w_n656_n7889.n0 6.3005
R205 w_n656_n7889.n669 w_n656_n7889.n668 6.3005
R206 w_n656_n7889.n668 w_n656_n7889.n667 6.3005
R207 w_n656_n7889.n7 w_n656_n7889.n6 6.3005
R208 w_n656_n7889.n8 w_n656_n7889.n7 6.3005
R209 w_n656_n7889.n657 w_n656_n7889.n656 6.3005
R210 w_n656_n7889.n658 w_n656_n7889.n657 6.3005
R211 w_n656_n7889.n15 w_n656_n7889.n14 6.3005
R212 w_n656_n7889.n642 w_n656_n7889.n14 6.3005
R213 w_n656_n7889.n641 w_n656_n7889.n640 6.3005
R214 w_n656_n7889.n643 w_n656_n7889.n641 6.3005
R215 w_n656_n7889.n639 w_n656_n7889.n638 6.3005
R216 w_n656_n7889.n644 w_n656_n7889.n638 6.3005
R217 w_n656_n7889.n620 w_n656_n7889.n618 6.3005
R218 w_n656_n7889.n621 w_n656_n7889.n620 6.3005
R219 w_n656_n7889.n652 w_n656_n7889.n651 6.3005
R220 w_n656_n7889.n651 w_n656_n7889.n650 6.3005
R221 w_n656_n7889.n619 w_n656_n7889.n617 6.3005
R222 w_n656_n7889.n624 w_n656_n7889.n622 6.3005
R223 w_n656_n7889.n627 w_n656_n7889.n622 6.3005
R224 w_n656_n7889.n649 w_n656_n7889.n648 6.3005
R225 w_n656_n7889.n650 w_n656_n7889.n649 6.3005
R226 w_n656_n7889.n647 w_n656_n7889.n623 6.3005
R227 w_n656_n7889.n623 w_n656_n7889.n621 6.3005
R228 w_n656_n7889.n646 w_n656_n7889.n645 6.3005
R229 w_n656_n7889.n645 w_n656_n7889.n644 6.3005
R230 w_n656_n7889.n637 w_n656_n7889.n636 6.3005
R231 w_n656_n7889.n643 w_n656_n7889.n637 6.3005
R232 w_n656_n7889.n13 w_n656_n7889.n12 6.3005
R233 w_n656_n7889.n642 w_n656_n7889.n13 6.3005
R234 w_n656_n7889.n660 w_n656_n7889.n659 6.3005
R235 w_n656_n7889.n659 w_n656_n7889.n658 6.3005
R236 w_n656_n7889.n10 w_n656_n7889.n9 6.3005
R237 w_n656_n7889.n9 w_n656_n7889.n8 6.3005
R238 w_n656_n7889.n666 w_n656_n7889.n665 6.3005
R239 w_n656_n7889.n667 w_n656_n7889.n666 6.3005
R240 w_n656_n7889.n664 w_n656_n7889.n1 6.3005
R241 w_n656_n7889.n1 w_n656_n7889.n0 6.3005
R242 w_n656_n7889.n631 w_n656_n7889.n630 6.21641
R243 w_n656_n7889.n673 w_n656_n7889.n3 6.21641
R244 w_n656_n7889.n609 w_n656_n7889.n608 5.86811
R245 w_n656_n7889.t10 w_n656_n7889.n119 5.69318
R246 w_n656_n7889.n306 w_n656_n7889.n155 5.5326
R247 w_n656_n7889.n245 w_n656_n7889.n244 5.5326
R248 w_n656_n7889.n284 w_n656_n7889.n283 5.5326
R249 w_n656_n7889.n251 w_n656_n7889.n202 5.5326
R250 w_n656_n7889.n597 w_n656_n7889.n94 5.43442
R251 w_n656_n7889.n569 w_n656_n7889.n87 5.2005
R252 w_n656_n7889.n595 w_n656_n7889.n87 5.2005
R253 w_n656_n7889.n570 w_n656_n7889.n95 5.2005
R254 w_n656_n7889.n597 w_n656_n7889.n95 5.2005
R255 w_n656_n7889.n572 w_n656_n7889.n571 5.2005
R256 w_n656_n7889.n573 w_n656_n7889.n572 5.2005
R257 w_n656_n7889.n103 w_n656_n7889.n102 5.2005
R258 w_n656_n7889.n102 w_n656_n7889.n101 5.2005
R259 w_n656_n7889.n564 w_n656_n7889.n563 5.2005
R260 w_n656_n7889.n563 w_n656_n7889.n562 5.2005
R261 w_n656_n7889.n106 w_n656_n7889.n105 5.2005
R262 w_n656_n7889.n559 w_n656_n7889.n106 5.2005
R263 w_n656_n7889.n532 w_n656_n7889.n531 5.2005
R264 w_n656_n7889.n531 w_n656_n7889.n530 5.2005
R265 w_n656_n7889.n533 w_n656_n7889.n121 5.2005
R266 w_n656_n7889.n545 w_n656_n7889.n121 5.2005
R267 w_n656_n7889.n130 w_n656_n7889.n128 5.2005
R268 w_n656_n7889.n128 w_n656_n7889.n119 5.2005
R269 w_n656_n7889.n538 w_n656_n7889.n537 5.2005
R270 w_n656_n7889.n539 w_n656_n7889.n538 5.2005
R271 w_n656_n7889.n129 w_n656_n7889.n127 5.2005
R272 w_n656_n7889.n127 w_n656_n7889.n124 5.2005
R273 w_n656_n7889.n325 w_n656_n7889.n143 5.2005
R274 w_n656_n7889.n336 w_n656_n7889.n143 5.2005
R275 w_n656_n7889.n327 w_n656_n7889.n326 5.2005
R276 w_n656_n7889.n328 w_n656_n7889.n327 5.2005
R277 w_n656_n7889.n600 w_n656_n7889.n88 5.2005
R278 w_n656_n7889.n595 w_n656_n7889.n88 5.2005
R279 w_n656_n7889.n599 w_n656_n7889.n598 5.2005
R280 w_n656_n7889.n598 w_n656_n7889.n597 5.2005
R281 w_n656_n7889.n93 w_n656_n7889.n92 5.2005
R282 w_n656_n7889.n573 w_n656_n7889.n93 5.2005
R283 w_n656_n7889.n555 w_n656_n7889.n554 5.2005
R284 w_n656_n7889.n554 w_n656_n7889.n101 5.2005
R285 w_n656_n7889.n556 w_n656_n7889.n109 5.2005
R286 w_n656_n7889.n562 w_n656_n7889.n109 5.2005
R287 w_n656_n7889.n558 w_n656_n7889.n557 5.2005
R288 w_n656_n7889.n559 w_n656_n7889.n558 5.2005
R289 w_n656_n7889.n115 w_n656_n7889.n114 5.2005
R290 w_n656_n7889.n530 w_n656_n7889.n114 5.2005
R291 w_n656_n7889.n547 w_n656_n7889.n546 5.2005
R292 w_n656_n7889.n546 w_n656_n7889.n545 5.2005
R293 w_n656_n7889.n118 w_n656_n7889.n117 5.2005
R294 w_n656_n7889.n119 w_n656_n7889.n118 5.2005
R295 w_n656_n7889.n314 w_n656_n7889.n126 5.2005
R296 w_n656_n7889.n539 w_n656_n7889.n126 5.2005
R297 w_n656_n7889.n316 w_n656_n7889.n315 5.2005
R298 w_n656_n7889.n315 w_n656_n7889.n124 5.2005
R299 w_n656_n7889.n317 w_n656_n7889.n142 5.2005
R300 w_n656_n7889.n336 w_n656_n7889.n142 5.2005
R301 w_n656_n7889.n318 w_n656_n7889.n310 5.2005
R302 w_n656_n7889.n328 w_n656_n7889.n310 5.2005
R303 w_n656_n7889.n286 w_n656_n7889.n285 5.2005
R304 w_n656_n7889.n285 w_n656_n7889.n151 5.2005
R305 w_n656_n7889.n287 w_n656_n7889.n165 5.2005
R306 w_n656_n7889.n300 w_n656_n7889.n165 5.2005
R307 w_n656_n7889.n288 w_n656_n7889.n175 5.2005
R308 w_n656_n7889.n175 w_n656_n7889.n162 5.2005
R309 w_n656_n7889.n290 w_n656_n7889.n289 5.2005
R310 w_n656_n7889.n291 w_n656_n7889.n290 5.2005
R311 w_n656_n7889.n176 w_n656_n7889.n174 5.2005
R312 w_n656_n7889.n174 w_n656_n7889.n171 5.2005
R313 w_n656_n7889.n257 w_n656_n7889.n190 5.2005
R314 w_n656_n7889.n269 w_n656_n7889.n190 5.2005
R315 w_n656_n7889.n258 w_n656_n7889.n200 5.2005
R316 w_n656_n7889.n200 w_n656_n7889.n188 5.2005
R317 w_n656_n7889.n260 w_n656_n7889.n259 5.2005
R318 w_n656_n7889.n261 w_n656_n7889.n260 5.2005
R319 w_n656_n7889.n201 w_n656_n7889.n199 5.2005
R320 w_n656_n7889.n199 w_n656_n7889.n196 5.2005
R321 w_n656_n7889.n250 w_n656_n7889.n249 5.2005
R322 w_n656_n7889.n249 w_n656_n7889.n248 5.2005
R323 w_n656_n7889.n280 w_n656_n7889.n279 5.2005
R324 w_n656_n7889.n279 w_n656_n7889.n151 5.2005
R325 w_n656_n7889.n278 w_n656_n7889.n163 5.2005
R326 w_n656_n7889.n300 w_n656_n7889.n163 5.2005
R327 w_n656_n7889.n277 w_n656_n7889.n276 5.2005
R328 w_n656_n7889.n276 w_n656_n7889.n162 5.2005
R329 w_n656_n7889.n184 w_n656_n7889.n173 5.2005
R330 w_n656_n7889.n291 w_n656_n7889.n173 5.2005
R331 w_n656_n7889.n272 w_n656_n7889.n271 5.2005
R332 w_n656_n7889.n271 w_n656_n7889.n171 5.2005
R333 w_n656_n7889.n270 w_n656_n7889.n186 5.2005
R334 w_n656_n7889.n270 w_n656_n7889.n269 5.2005
R335 w_n656_n7889.n213 w_n656_n7889.n187 5.2005
R336 w_n656_n7889.n188 w_n656_n7889.n187 5.2005
R337 w_n656_n7889.n212 w_n656_n7889.n198 5.2005
R338 w_n656_n7889.n261 w_n656_n7889.n198 5.2005
R339 w_n656_n7889.n217 w_n656_n7889.n206 5.2005
R340 w_n656_n7889.n206 w_n656_n7889.n196 5.2005
R341 w_n656_n7889.n219 w_n656_n7889.n218 5.2005
R342 w_n656_n7889.n248 w_n656_n7889.n219 5.2005
R343 w_n656_n7889.n297 w_n656_n7889.n153 5.2005
R344 w_n656_n7889.n153 w_n656_n7889.n151 5.2005
R345 w_n656_n7889.n299 w_n656_n7889.n298 5.2005
R346 w_n656_n7889.n300 w_n656_n7889.n299 5.2005
R347 w_n656_n7889.n167 w_n656_n7889.n166 5.2005
R348 w_n656_n7889.n166 w_n656_n7889.n162 5.2005
R349 w_n656_n7889.n293 w_n656_n7889.n292 5.2005
R350 w_n656_n7889.n292 w_n656_n7889.n291 5.2005
R351 w_n656_n7889.n170 w_n656_n7889.n169 5.2005
R352 w_n656_n7889.n171 w_n656_n7889.n170 5.2005
R353 w_n656_n7889.n268 w_n656_n7889.n267 5.2005
R354 w_n656_n7889.n269 w_n656_n7889.n268 5.2005
R355 w_n656_n7889.n192 w_n656_n7889.n191 5.2005
R356 w_n656_n7889.n191 w_n656_n7889.n188 5.2005
R357 w_n656_n7889.n263 w_n656_n7889.n262 5.2005
R358 w_n656_n7889.n262 w_n656_n7889.n261 5.2005
R359 w_n656_n7889.n195 w_n656_n7889.n194 5.2005
R360 w_n656_n7889.n196 w_n656_n7889.n195 5.2005
R361 w_n656_n7889.n247 w_n656_n7889.n246 5.2005
R362 w_n656_n7889.n248 w_n656_n7889.n247 5.2005
R363 w_n656_n7889.n303 w_n656_n7889.n154 5.2005
R364 w_n656_n7889.n154 w_n656_n7889.n151 5.2005
R365 w_n656_n7889.n302 w_n656_n7889.n301 5.2005
R366 w_n656_n7889.n301 w_n656_n7889.n300 5.2005
R367 w_n656_n7889.n161 w_n656_n7889.n160 5.2005
R368 w_n656_n7889.n162 w_n656_n7889.n161 5.2005
R369 w_n656_n7889.n230 w_n656_n7889.n172 5.2005
R370 w_n656_n7889.n291 w_n656_n7889.n172 5.2005
R371 w_n656_n7889.n232 w_n656_n7889.n231 5.2005
R372 w_n656_n7889.n231 w_n656_n7889.n171 5.2005
R373 w_n656_n7889.n233 w_n656_n7889.n189 5.2005
R374 w_n656_n7889.n269 w_n656_n7889.n189 5.2005
R375 w_n656_n7889.n235 w_n656_n7889.n234 5.2005
R376 w_n656_n7889.n234 w_n656_n7889.n188 5.2005
R377 w_n656_n7889.n236 w_n656_n7889.n197 5.2005
R378 w_n656_n7889.n261 w_n656_n7889.n197 5.2005
R379 w_n656_n7889.n237 w_n656_n7889.n223 5.2005
R380 w_n656_n7889.n223 w_n656_n7889.n196 5.2005
R381 w_n656_n7889.n238 w_n656_n7889.n205 5.2005
R382 w_n656_n7889.n248 w_n656_n7889.n205 5.2005
R383 w_n656_n7889.n576 w_n656_n7889.n575 5.2005
R384 w_n656_n7889.n575 w_n656_n7889.n94 5.2005
R385 w_n656_n7889.n574 w_n656_n7889.n100 5.2005
R386 w_n656_n7889.n574 w_n656_n7889.n573 5.2005
R387 w_n656_n7889.n515 w_n656_n7889.n514 5.2005
R388 w_n656_n7889.n514 w_n656_n7889.n513 5.2005
R389 w_n656_n7889.n512 w_n656_n7889.n135 5.2005
R390 w_n656_n7889.n512 w_n656_n7889.n108 5.2005
R391 w_n656_n7889.n526 w_n656_n7889.n113 5.2005
R392 w_n656_n7889.n559 w_n656_n7889.n113 5.2005
R393 w_n656_n7889.n529 w_n656_n7889.n528 5.2005
R394 w_n656_n7889.n530 w_n656_n7889.n529 5.2005
R395 w_n656_n7889.n132 w_n656_n7889.n120 5.2005
R396 w_n656_n7889.n545 w_n656_n7889.n120 5.2005
R397 w_n656_n7889.n340 w_n656_n7889.n339 5.2005
R398 w_n656_n7889.n339 w_n656_n7889.n119 5.2005
R399 w_n656_n7889.n342 w_n656_n7889.n125 5.2005
R400 w_n656_n7889.n539 w_n656_n7889.n125 5.2005
R401 w_n656_n7889.n343 w_n656_n7889.n338 5.2005
R402 w_n656_n7889.n338 w_n656_n7889.n124 5.2005
R403 w_n656_n7889.n337 w_n656_n7889.n140 5.2005
R404 w_n656_n7889.n337 w_n656_n7889.n336 5.2005
R405 w_n656_n7889.n148 w_n656_n7889.n141 5.2005
R406 w_n656_n7889.n328 w_n656_n7889.n141 5.2005
R407 w_n656_n7889.n81 w_n656_n7889.n79 5.2005
R408 w_n656_n7889.n595 w_n656_n7889.n81 5.2005
R409 w_n656_n7889.n611 w_n656_n7889.n78 5.2005
R410 w_n656_n7889.n597 w_n656_n7889.n78 5.2005
R411 w_n656_n7889.n612 w_n656_n7889.n77 5.2005
R412 w_n656_n7889.n573 w_n656_n7889.n77 5.2005
R413 w_n656_n7889.n613 w_n656_n7889.n76 5.2005
R414 w_n656_n7889.n101 w_n656_n7889.n76 5.2005
R415 w_n656_n7889.n561 w_n656_n7889.n75 5.2005
R416 w_n656_n7889.n562 w_n656_n7889.n561 5.2005
R417 w_n656_n7889.n560 w_n656_n7889.n112 5.2005
R418 w_n656_n7889.n560 w_n656_n7889.n559 5.2005
R419 w_n656_n7889.n111 w_n656_n7889.n110 5.2005
R420 w_n656_n7889.n530 w_n656_n7889.n110 5.2005
R421 w_n656_n7889.n544 w_n656_n7889.n543 5.2005
R422 w_n656_n7889.n545 w_n656_n7889.n544 5.2005
R423 w_n656_n7889.n542 w_n656_n7889.n541 5.2005
R424 w_n656_n7889.n541 w_n656_n7889.n119 5.2005
R425 w_n656_n7889.n540 w_n656_n7889.n123 5.2005
R426 w_n656_n7889.n540 w_n656_n7889.n539 5.2005
R427 w_n656_n7889.n146 w_n656_n7889.n122 5.2005
R428 w_n656_n7889.n124 w_n656_n7889.n122 5.2005
R429 w_n656_n7889.n335 w_n656_n7889.n334 5.2005
R430 w_n656_n7889.n336 w_n656_n7889.n335 5.2005
R431 w_n656_n7889.n145 w_n656_n7889.n144 5.2005
R432 w_n656_n7889.n328 w_n656_n7889.n144 5.2005
R433 w_n656_n7889.n439 w_n656_n7889.n71 5.10898
R434 w_n656_n7889.n441 w_n656_n7889.n71 5.10898
R435 w_n656_n7889.n36 w_n656_n7889.n31 5.10026
R436 w_n656_n7889.n305 w_n656_n7889.n304 4.9251
R437 w_n656_n7889.n243 w_n656_n7889.n239 4.9251
R438 w_n656_n7889.n282 w_n656_n7889.n281 4.9251
R439 w_n656_n7889.n211 w_n656_n7889.n210 4.9251
R440 w_n656_n7889.n672 w_n656_n7889.n671 4.92413
R441 w_n656_n7889.n626 w_n656_n7889.n616 4.92413
R442 w_n656_n7889.n602 w_n656_n7889.n601 4.91528
R443 w_n656_n7889.n321 w_n656_n7889.n319 4.91528