* NGSPICE file created from lna_block.ext - technology: gf180mcuD

.subckt Unnamed_aa715e86 w_n1078_n1609# a_n86_n1181# a_n142_n1389# a_n292_n1181# VSUBS
X0 w_n1078_n1609# w_n1078_n1609# w_n1078_n1609# w_n1078_n1609# pfet_03v3 ad=7.3p pd=21.46u as=29.2p ps=85.84u w=10u l=0.28u
X1 a_n292_n1181# a_n142_n1389# a_n86_n1181# w_n1078_n1609# pfet_03v3 ad=7.5p pd=21.5u as=4.3p ps=10.86u w=10u l=0.28u
X2 a_n86_n1181# a_n142_n1389# a_n292_n1181# w_n1078_n1609# pfet_03v3 ad=4.3p pd=10.86u as=7.5p ps=21.5u w=10u l=0.28u
X3 w_n1078_n1609# w_n1078_n1609# w_n1078_n1609# w_n1078_n1609# pfet_03v3 ad=7.3p pd=21.46u as=0 ps=0 w=10u l=0.28u
C0 a_n86_n1181# a_n292_n1181# 3.10568f
C1 a_n86_n1181# w_n1078_n1609# 0.53563f
C2 a_n292_n1181# w_n1078_n1609# 1.92553f
C3 a_n86_n1181# a_n142_n1389# 0.29284f
C4 a_n292_n1181# a_n142_n1389# 0.22425f
C5 w_n1078_n1609# a_n142_n1389# 0.70401f
C6 a_n86_n1181# VSUBS 0.02943f
C7 a_n292_n1181# VSUBS 0.33447f
C8 a_n142_n1389# VSUBS 0.10135f
C9 w_n1078_n1609# VSUBS 22.767f
.ends

.subckt Unnamed_3c60cbf2 a_n370_n2390# a_n520_n2180# w_n1806_n3110# a_n314_n2180#
+ VSUBS
X0 w_n1806_n3110# w_n1806_n3110# w_n1806_n3110# w_n1806_n3110# nfet_03v3 ad=14.6p pd=41.46u as=58.4p ps=0.16584m w=20u l=0.28u
X1 w_n1806_n3110# w_n1806_n3110# w_n1806_n3110# w_n1806_n3110# nfet_03v3 ad=14.6p pd=41.46u as=0 ps=0 w=20u l=0.28u
X2 a_n520_n2180# a_n370_n2390# a_n314_n2180# w_n1806_n3110# nfet_03v3 ad=15p pd=41.5u as=8.6p ps=20.86u w=20u l=0.28u
X3 a_n314_n2180# a_n370_n2390# a_n520_n2180# w_n1806_n3110# nfet_03v3 ad=8.6p pd=20.86u as=15p ps=41.5u w=20u l=0.28u
X4 a_n520_n2180# a_n370_n2390# a_n314_n2180# w_n1806_n3110# nfet_03v3 ad=8.6p pd=20.86u as=8.6p ps=20.86u w=20u l=0.28u
X5 a_n314_n2180# a_n370_n2390# a_n520_n2180# w_n1806_n3110# nfet_03v3 ad=8.6p pd=20.86u as=8.6p ps=20.86u w=20u l=0.28u
C0 a_n520_n2180# a_n370_n2390# 0.92695f
C1 a_n520_n2180# w_n1806_n3110# 2.45671f
C2 a_n520_n2180# a_n314_n2180# 11.3334f
C3 a_n370_n2390# w_n1806_n3110# 1.5486f
C4 a_n370_n2390# a_n314_n2180# 0.98475f
C5 a_n314_n2180# w_n1806_n3110# 0.54015f
C6 a_n314_n2180# VSUBS 0.42154f
C7 a_n520_n2180# VSUBS 1.76105f
C8 a_n370_n2390# VSUBS 0.25367f
C9 w_n1806_n3110# VSUBS 7.40085f
.ends

.subckt Unnamed_36f005e6 a_n370_n2390# a_n520_n2180# w_n1806_n3110# a_n314_n2180#
+ VSUBS
X0 w_n1806_n3110# w_n1806_n3110# w_n1806_n3110# w_n1806_n3110# nfet_03v3 ad=14.6p pd=41.46u as=58.4p ps=0.16584m w=20u l=0.28u
X1 w_n1806_n3110# w_n1806_n3110# w_n1806_n3110# w_n1806_n3110# nfet_03v3 ad=14.6p pd=41.46u as=0 ps=0 w=20u l=0.28u
X2 a_n520_n2180# a_n370_n2390# a_n314_n2180# w_n1806_n3110# nfet_03v3 ad=15p pd=41.5u as=8.6p ps=20.86u w=20u l=0.28u
X3 a_n314_n2180# a_n370_n2390# a_n520_n2180# w_n1806_n3110# nfet_03v3 ad=8.6p pd=20.86u as=15p ps=41.5u w=20u l=0.28u
X4 a_n520_n2180# a_n370_n2390# a_n314_n2180# w_n1806_n3110# nfet_03v3 ad=8.6p pd=20.86u as=8.6p ps=20.86u w=20u l=0.28u
X5 a_n314_n2180# a_n370_n2390# a_n520_n2180# w_n1806_n3110# nfet_03v3 ad=8.6p pd=20.86u as=8.6p ps=20.86u w=20u l=0.28u
C0 a_n520_n2180# a_n370_n2390# 0.92695f
C1 a_n520_n2180# w_n1806_n3110# 2.45671f
C2 a_n520_n2180# a_n314_n2180# 11.3334f
C3 a_n370_n2390# w_n1806_n3110# 1.5486f
C4 a_n370_n2390# a_n314_n2180# 0.98475f
C5 a_n314_n2180# w_n1806_n3110# 0.54015f
C6 a_n314_n2180# VSUBS 0.42154f
C7 a_n520_n2180# VSUBS 1.76105f
C8 a_n370_n2390# VSUBS 0.25367f
C9 w_n1806_n3110# VSUBS 7.40085f
.ends

.subckt lna_block_62479d0d w_n1806_3170# VSUBS
XUnnamed_aa715e86_0 w_n1806_3170# w_n1806_3170# w_n1806_3170# w_n1806_3170# VSUBS
+ Unnamed_aa715e86
XUnnamed_3c60cbf2_0 Unnamed_3c60cbf2_0/a_n370_n2390# Unnamed_3c60cbf2_0/a_n520_n2180#
+ w_n1806_3170# w_n1806_3170# VSUBS Unnamed_3c60cbf2
XUnnamed_36f005e6_0 w_n1806_3170# w_n1806_3170# w_n1806_3170# w_n1806_3170# VSUBS
+ Unnamed_36f005e6
C0 Unnamed_3c60cbf2_0/a_n370_n2390# w_n1806_3170# 0.07625f
C1 Unnamed_3c60cbf2_0/a_n520_n2180# w_n1806_3170# 0.98588f
C2 Unnamed_3c60cbf2_0/a_n520_n2180# Unnamed_3c60cbf2_0/a_n370_n2390# -0.00122f
C3 Unnamed_3c60cbf2_0/a_n520_n2180# VSUBS 1.76105f
C4 Unnamed_3c60cbf2_0/a_n370_n2390# VSUBS 0.25367f
C5 w_n1806_3170# VSUBS 43.51971f
.ends

.subckt lna_block
Xlna_block_62479d0d_0 w_n1806_3170# VSUBS lna_block_62479d0d
X0 w_n1806_3170.t15 w_n1806_3170.t14 w_n1806_3170.t15 w_n1806_3170.t6 nfet_03v3 ad=15p pd=41.5u as=8.6p ps=20.86u w=0 l=0
X1 w_n1806_3170.t25 w_n1806_3170.t24 w_n1806_3170.t25 w_n1806_3170.t20 nfet_03v3 ad=14.6p pd=41.46u as=0 ps=0 w=0 l=0
X2 w_n1806_3170.t34 w_n1806_3170.t32 w_n1806_3170.t34 w_n1806_3170.t33 pfet_03v3 ad=7.5p pd=21.5u as=4.3p ps=10.86u w=0 l=0
X3 w_n1806_3170.t23 w_n1806_3170.t22 w_n1806_3170.t23 w_n1806_3170.t17 nfet_03v3 ad=14.6p pd=41.46u as=0 ps=0 w=0 l=0
X4 lna_block_62479d0d_0/Unnamed_3c60cbf2_0/a_n520_n2180.t3 lna_block_62479d0d_0/Unnamed_3c60cbf2_0/a_n370_n2390# w_n1806_3170.t7 w_n1806_3170.t6 nfet_03v3 ad=15p pd=41.5u as=8.6p ps=20.86u w=0 l=0
X5 w_n1806_3170.t13 w_n1806_3170.t12 w_n1806_3170.t13 w_n1806_3170.t4 nfet_03v3 ad=8.6p pd=20.86u as=15p ps=41.5u w=0 l=0
X6 w_n1806_3170.t21 w_n1806_3170.t19 w_n1806_3170.t21 w_n1806_3170.t20 nfet_03v3 ad=14.6p pd=41.46u as=0 ps=0 w=0 l=0
X7 w_n1806_3170.t11 w_n1806_3170.t10 w_n1806_3170.t11 w_n1806_3170.t2 nfet_03v3 ad=8.6p pd=20.86u as=8.6p ps=20.86u w=0 l=0
X8 w_n1806_3170.t5 lna_block_62479d0d_0/Unnamed_3c60cbf2_0/a_n370_n2390# lna_block_62479d0d_0/Unnamed_3c60cbf2_0/a_n520_n2180.t2 w_n1806_3170.t4 nfet_03v3 ad=8.6p pd=20.86u as=15p ps=41.5u w=0 l=0
X9 lna_block_62479d0d_0/Unnamed_3c60cbf2_0/a_n520_n2180.t1 lna_block_62479d0d_0/Unnamed_3c60cbf2_0/a_n370_n2390# w_n1806_3170.t3 w_n1806_3170.t2 nfet_03v3 ad=8.6p pd=20.86u as=8.6p ps=20.86u w=0 l=0
X10 w_n1806_3170.t1 lna_block_62479d0d_0/Unnamed_3c60cbf2_0/a_n370_n2390# lna_block_62479d0d_0/Unnamed_3c60cbf2_0/a_n520_n2180.t0 w_n1806_3170.t0 nfet_03v3 ad=8.6p pd=20.86u as=8.6p ps=20.86u w=0 l=0
X11 w_n1806_3170.t31 w_n1806_3170.t29 w_n1806_3170.t31 w_n1806_3170.t30 pfet_03v3 ad=4.3p pd=10.86u as=7.5p ps=21.5u w=0 l=0
X12 w_n1806_3170.t28 w_n1806_3170.t26 w_n1806_3170.t28 w_n1806_3170.t27 pfet_03v3 ad=7.3p pd=21.46u as=0 ps=0 w=0 l=0
X13 w_n1806_3170.t18 w_n1806_3170.t16 w_n1806_3170.t18 w_n1806_3170.t17 nfet_03v3 ad=14.6p pd=41.46u as=0 ps=0 w=0 l=0
X14 w_n1806_3170.t37 w_n1806_3170.t35 w_n1806_3170.t37 w_n1806_3170.t36 pfet_03v3 ad=7.3p pd=21.46u as=0 ps=0 w=0 l=0
X15 w_n1806_3170.t9 w_n1806_3170.t8 w_n1806_3170.t9 w_n1806_3170.t0 nfet_03v3 ad=8.6p pd=20.86u as=8.6p ps=20.86u w=0 l=0
R0 w_n1806_3170.n320 w_n1806_3170.t14 282.5
R1 w_n1806_3170.n318 w_n1806_3170.t12 282.5
R2 w_n1806_3170.n347 w_n1806_3170.t24 278.678
R3 w_n1806_3170.n438 w_n1806_3170.t22 278.678
R4 w_n1806_3170.n5 w_n1806_3170.t16 278.678
R5 w_n1806_3170.n341 w_n1806_3170.t19 278.678
R6 w_n1806_3170.n319 w_n1806_3170.t8 275.055
R7 w_n1806_3170.n317 w_n1806_3170.t10 275.055
R8 w_n1806_3170.n464 w_n1806_3170.n2 266
R9 w_n1806_3170.n464 w_n1806_3170.n3 266
R10 w_n1806_3170.n409 w_n1806_3170.n344 266
R11 w_n1806_3170.n409 w_n1806_3170.n343 266
R12 w_n1806_3170.n442 w_n1806_3170.n1 266
R13 w_n1806_3170.n435 w_n1806_3170.n1 266
R14 w_n1806_3170.n346 w_n1806_3170.n345 266
R15 w_n1806_3170.n406 w_n1806_3170.n345 266
R16 w_n1806_3170.n466 w_n1806_3170.n465 152.927
R17 w_n1806_3170.n86 w_n1806_3170.n81 152.863
R18 w_n1806_3170.n123 w_n1806_3170.n111 152.863
R19 w_n1806_3170.n67 w_n1806_3170.t32 152.758
R20 w_n1806_3170.n67 w_n1806_3170.t29 152.758
R21 w_n1806_3170.n120 w_n1806_3170.t35 148.321
R22 w_n1806_3170.n82 w_n1806_3170.t26 148.321
R23 w_n1806_3170.n408 w_n1806_3170.n407 65.725
R24 w_n1806_3170.n465 w_n1806_3170.n0 65.725
R25 w_n1806_3170.n88 w_n1806_3170.n81 52.3429
R26 w_n1806_3170.n124 w_n1806_3170.n123 52.3429
R27 w_n1806_3170.n140 w_n1806_3170.n75 49.7208
R28 w_n1806_3170.n140 w_n1806_3170.n76 49.7208
R29 w_n1806_3170.n134 w_n1806_3170.n133 49.7208
R30 w_n1806_3170.n132 w_n1806_3170.n104 49.7208
R31 w_n1806_3170.n126 w_n1806_3170.n104 49.7208
R32 w_n1806_3170.n417 w_n1806_3170.n334 41.4018
R33 w_n1806_3170.n417 w_n1806_3170.n337 41.4018
R34 w_n1806_3170.n394 w_n1806_3170.n363 41.4018
R35 w_n1806_3170.n426 w_n1806_3170.n163 41.4018
R36 w_n1806_3170.n448 w_n1806_3170.n9 41.4018
R37 w_n1806_3170.n457 w_n1806_3170.n9 41.4018
R38 w_n1806_3170.t33 w_n1806_3170.n76 39.1553
R39 w_n1806_3170.t30 w_n1806_3170.n132 39.1553
R40 w_n1806_3170.t6 w_n1806_3170.n337 35.7091
R41 w_n1806_3170.n448 w_n1806_3170.t4 35.7091
R42 w_n1806_3170.n388 w_n1806_3170.t0 29.4989
R43 w_n1806_3170.n388 w_n1806_3170.t2 29.4989
R44 w_n1806_3170.n87 w_n1806_3170.t27 25.4822
R45 w_n1806_3170.t36 w_n1806_3170.n125 25.4822
R46 w_n1806_3170.n407 w_n1806_3170.t20 24.3237
R47 w_n1806_3170.t17 w_n1806_3170.n0 24.3237
R48 w_n1806_3170.t27 w_n1806_3170.n75 24.2392
R49 w_n1806_3170.n126 w_n1806_3170.t36 24.2392
R50 w_n1806_3170.t20 w_n1806_3170.n334 17.0785
R51 w_n1806_3170.n457 w_n1806_3170.t17 17.0785
R52 w_n1806_3170.n355 w_n1806_3170.n344 15.5561
R53 w_n1806_3170.n355 w_n1806_3170.n335 15.5561
R54 w_n1806_3170.n361 w_n1806_3170.n335 15.5561
R55 w_n1806_3170.n362 w_n1806_3170.n361 15.5561
R56 w_n1806_3170.n371 w_n1806_3170.n362 15.5561
R57 w_n1806_3170.n374 w_n1806_3170.n371 15.5561
R58 w_n1806_3170.n374 w_n1806_3170.n164 15.5561
R59 w_n1806_3170.n425 w_n1806_3170.n164 15.5561
R60 w_n1806_3170.n425 w_n1806_3170.n151 15.5561
R61 w_n1806_3170.n151 w_n1806_3170.n8 15.5561
R62 w_n1806_3170.n458 w_n1806_3170.n8 15.5561
R63 w_n1806_3170.n458 w_n1806_3170.n3 15.5561
R64 w_n1806_3170.n343 w_n1806_3170.n338 15.5561
R65 w_n1806_3170.n416 w_n1806_3170.n338 15.5561
R66 w_n1806_3170.n416 w_n1806_3170.n339 15.5561
R67 w_n1806_3170.n393 w_n1806_3170.n339 15.5561
R68 w_n1806_3170.n393 w_n1806_3170.n390 15.5561
R69 w_n1806_3170.n390 w_n1806_3170.n389 15.5561
R70 w_n1806_3170.n389 w_n1806_3170.n366 15.5561
R71 w_n1806_3170.n366 w_n1806_3170.n150 15.5561
R72 w_n1806_3170.n449 w_n1806_3170.n150 15.5561
R73 w_n1806_3170.n449 w_n1806_3170.n12 15.5561
R74 w_n1806_3170.n456 w_n1806_3170.n12 15.5561
R75 w_n1806_3170.n456 w_n1806_3170.n2 15.5561
R76 w_n1806_3170.n349 w_n1806_3170.n346 15.5561
R77 w_n1806_3170.n349 w_n1806_3170.n336 15.5561
R78 w_n1806_3170.n396 w_n1806_3170.n336 15.5561
R79 w_n1806_3170.n396 w_n1806_3170.n395 15.5561
R80 w_n1806_3170.n395 w_n1806_3170.n353 15.5561
R81 w_n1806_3170.n380 w_n1806_3170.n353 15.5561
R82 w_n1806_3170.n380 w_n1806_3170.n162 15.5561
R83 w_n1806_3170.n427 w_n1806_3170.n162 15.5561
R84 w_n1806_3170.n427 w_n1806_3170.n152 15.5561
R85 w_n1806_3170.n432 w_n1806_3170.n152 15.5561
R86 w_n1806_3170.n432 w_n1806_3170.n10 15.5561
R87 w_n1806_3170.n435 w_n1806_3170.n10 15.5561
R88 w_n1806_3170.n406 w_n1806_3170.n332 15.5561
R89 w_n1806_3170.n418 w_n1806_3170.n332 15.5561
R90 w_n1806_3170.n418 w_n1806_3170.n333 15.5561
R91 w_n1806_3170.n365 w_n1806_3170.n333 15.5561
R92 w_n1806_3170.n381 w_n1806_3170.n365 15.5561
R93 w_n1806_3170.n387 w_n1806_3170.n381 15.5561
R94 w_n1806_3170.n387 w_n1806_3170.n384 15.5561
R95 w_n1806_3170.n384 w_n1806_3170.n153 15.5561
R96 w_n1806_3170.n447 w_n1806_3170.n153 15.5561
R97 w_n1806_3170.n447 w_n1806_3170.n154 15.5561
R98 w_n1806_3170.n154 w_n1806_3170.n11 15.5561
R99 w_n1806_3170.n442 w_n1806_3170.n11 15.5561
R100 w_n1806_3170.n89 w_n1806_3170.n77 14.0005
R101 w_n1806_3170.n139 w_n1806_3170.n77 14.0005
R102 w_n1806_3170.n139 w_n1806_3170.n78 14.0005
R103 w_n1806_3170.n135 w_n1806_3170.n78 14.0005
R104 w_n1806_3170.n135 w_n1806_3170.n97 14.0005
R105 w_n1806_3170.n131 w_n1806_3170.n97 14.0005
R106 w_n1806_3170.n131 w_n1806_3170.n105 14.0005
R107 w_n1806_3170.n127 w_n1806_3170.n105 14.0005
R108 w_n1806_3170.n127 w_n1806_3170.n111 14.0005
R109 w_n1806_3170.n86 w_n1806_3170.n73 14.0005
R110 w_n1806_3170.n141 w_n1806_3170.n73 14.0005
R111 w_n1806_3170.n141 w_n1806_3170.n74 14.0005
R112 w_n1806_3170.n99 w_n1806_3170.n74 14.0005
R113 w_n1806_3170.n100 w_n1806_3170.n99 14.0005
R114 w_n1806_3170.n103 w_n1806_3170.n100 14.0005
R115 w_n1806_3170.n115 w_n1806_3170.n103 14.0005
R116 w_n1806_3170.n115 w_n1806_3170.n112 14.0005
R117 w_n1806_3170.n113 w_n1806_3170.n112 14.0005
R118 w_n1806_3170.n321 w_n1806_3170.n318 12.5005
R119 w_n1806_3170.n68 w_n1806_3170.n67 12.5005
R120 w_n1806_3170.n321 w_n1806_3170.n320 12.5005
R121 w_n1806_3170.t0 w_n1806_3170.n363 11.9034
R122 w_n1806_3170.t2 w_n1806_3170.n163 11.9034
R123 w_n1806_3170.n134 w_n1806_3170.t33 10.5661
R124 w_n1806_3170.n133 w_n1806_3170.t30 10.5661
R125 w_n1806_3170.n320 w_n1806_3170.n319 9.1985
R126 w_n1806_3170.n318 w_n1806_3170.n317 9.1985
R127 w_n1806_3170.n404 w_n1806_3170.n403 7.18485
R128 w_n1806_3170.n441 w_n1806_3170.n440 7.18485
R129 w_n1806_3170.n463 w_n1806_3170.n4 7.18485
R130 w_n1806_3170.n411 w_n1806_3170.n410 7.18485
R131 w_n1806_3170.n329 w_n1806_3170.n327 6.46666
R132 w_n1806_3170.n319 w_n1806_3170.n316 6.46337
R133 w_n1806_3170.n317 w_n1806_3170.n316 6.46337
R134 w_n1806_3170.n329 w_n1806_3170.n328 6.46333
R135 w_n1806_3170.n90 w_n1806_3170.n89 6.3005
R136 w_n1806_3170.n79 w_n1806_3170.n77 6.3005
R137 w_n1806_3170.n77 w_n1806_3170.n75 6.3005
R138 w_n1806_3170.n139 w_n1806_3170.n138 6.3005
R139 w_n1806_3170.n140 w_n1806_3170.n139 6.3005
R140 w_n1806_3170.n137 w_n1806_3170.n78 6.3005
R141 w_n1806_3170.n78 w_n1806_3170.n76 6.3005
R142 w_n1806_3170.n136 w_n1806_3170.n135 6.3005
R143 w_n1806_3170.n135 w_n1806_3170.n134 6.3005
R144 w_n1806_3170.n97 w_n1806_3170.n96 6.3005
R145 w_n1806_3170.n133 w_n1806_3170.n97 6.3005
R146 w_n1806_3170.n131 w_n1806_3170.n130 6.3005
R147 w_n1806_3170.n132 w_n1806_3170.n131 6.3005
R148 w_n1806_3170.n129 w_n1806_3170.n105 6.3005
R149 w_n1806_3170.n105 w_n1806_3170.n104 6.3005
R150 w_n1806_3170.n128 w_n1806_3170.n127 6.3005
R151 w_n1806_3170.n127 w_n1806_3170.n126 6.3005
R152 w_n1806_3170.n111 w_n1806_3170.n110 6.3005
R153 w_n1806_3170.n125 w_n1806_3170.n111 6.3005
R154 w_n1806_3170.n118 w_n1806_3170.n113 6.3005
R155 w_n1806_3170.n117 w_n1806_3170.n112 6.3005
R156 w_n1806_3170.n126 w_n1806_3170.n112 6.3005
R157 w_n1806_3170.n116 w_n1806_3170.n115 6.3005
R158 w_n1806_3170.n115 w_n1806_3170.n104 6.3005
R159 w_n1806_3170.n103 w_n1806_3170.n102 6.3005
R160 w_n1806_3170.n132 w_n1806_3170.n103 6.3005
R161 w_n1806_3170.n101 w_n1806_3170.n100 6.3005
R162 w_n1806_3170.n133 w_n1806_3170.n100 6.3005
R163 w_n1806_3170.n99 w_n1806_3170.n98 6.3005
R164 w_n1806_3170.n134 w_n1806_3170.n99 6.3005
R165 w_n1806_3170.n74 w_n1806_3170.n71 6.3005
R166 w_n1806_3170.n76 w_n1806_3170.n74 6.3005
R167 w_n1806_3170.n142 w_n1806_3170.n141 6.3005
R168 w_n1806_3170.n141 w_n1806_3170.n140 6.3005
R169 w_n1806_3170.n73 w_n1806_3170.n72 6.3005
R170 w_n1806_3170.n75 w_n1806_3170.n73 6.3005
R171 w_n1806_3170.n86 w_n1806_3170.n85 6.3005
R172 w_n1806_3170.n87 w_n1806_3170.n86 6.3005
R173 w_n1806_3170.n122 w_n1806_3170.n114 6.21641
R174 w_n1806_3170.n91 w_n1806_3170.n80 6.21641
R175 w_n1806_3170.n394 w_n1806_3170.t6 5.69318
R176 w_n1806_3170.n426 w_n1806_3170.t4 5.69318
R177 w_n1806_3170.n443 w_n1806_3170.n442 5.2005
R178 w_n1806_3170.n442 w_n1806_3170.n0 5.2005
R179 w_n1806_3170.n444 w_n1806_3170.n11 5.2005
R180 w_n1806_3170.n457 w_n1806_3170.n11 5.2005
R181 w_n1806_3170.n445 w_n1806_3170.n154 5.2005
R182 w_n1806_3170.n154 w_n1806_3170.n9 5.2005
R183 w_n1806_3170.n447 w_n1806_3170.n446 5.2005
R184 w_n1806_3170.n448 w_n1806_3170.n447 5.2005
R185 w_n1806_3170.n382 w_n1806_3170.n153 5.2005
R186 w_n1806_3170.n426 w_n1806_3170.n153 5.2005
R187 w_n1806_3170.n384 w_n1806_3170.n383 5.2005
R188 w_n1806_3170.n384 w_n1806_3170.n163 5.2005
R189 w_n1806_3170.n387 w_n1806_3170.n386 5.2005
R190 w_n1806_3170.n388 w_n1806_3170.n387 5.2005
R191 w_n1806_3170.n385 w_n1806_3170.n381 5.2005
R192 w_n1806_3170.n381 w_n1806_3170.n363 5.2005
R193 w_n1806_3170.n365 w_n1806_3170.n364 5.2005
R194 w_n1806_3170.n394 w_n1806_3170.n365 5.2005
R195 w_n1806_3170.n333 w_n1806_3170.n326 5.2005
R196 w_n1806_3170.n337 w_n1806_3170.n333 5.2005
R197 w_n1806_3170.n419 w_n1806_3170.n418 5.2005
R198 w_n1806_3170.n418 w_n1806_3170.n417 5.2005
R199 w_n1806_3170.n332 w_n1806_3170.n331 5.2005
R200 w_n1806_3170.n334 w_n1806_3170.n332 5.2005
R201 w_n1806_3170.n406 w_n1806_3170.n405 5.2005
R202 w_n1806_3170.n407 w_n1806_3170.n406 5.2005
R203 w_n1806_3170.n436 w_n1806_3170.n435 5.2005
R204 w_n1806_3170.n435 w_n1806_3170.n0 5.2005
R205 w_n1806_3170.n434 w_n1806_3170.n10 5.2005
R206 w_n1806_3170.n457 w_n1806_3170.n10 5.2005
R207 w_n1806_3170.n433 w_n1806_3170.n432 5.2005
R208 w_n1806_3170.n432 w_n1806_3170.n9 5.2005
R209 w_n1806_3170.n159 w_n1806_3170.n152 5.2005
R210 w_n1806_3170.n448 w_n1806_3170.n152 5.2005
R211 w_n1806_3170.n428 w_n1806_3170.n427 5.2005
R212 w_n1806_3170.n427 w_n1806_3170.n426 5.2005
R213 w_n1806_3170.n162 w_n1806_3170.n161 5.2005
R214 w_n1806_3170.n163 w_n1806_3170.n162 5.2005
R215 w_n1806_3170.n380 w_n1806_3170.n379 5.2005
R216 w_n1806_3170.n388 w_n1806_3170.n380 5.2005
R217 w_n1806_3170.n375 w_n1806_3170.n353 5.2005
R218 w_n1806_3170.n363 w_n1806_3170.n353 5.2005
R219 w_n1806_3170.n395 w_n1806_3170.n352 5.2005
R220 w_n1806_3170.n395 w_n1806_3170.n394 5.2005
R221 w_n1806_3170.n397 w_n1806_3170.n396 5.2005
R222 w_n1806_3170.n396 w_n1806_3170.n337 5.2005
R223 w_n1806_3170.n398 w_n1806_3170.n336 5.2005
R224 w_n1806_3170.n417 w_n1806_3170.n336 5.2005
R225 w_n1806_3170.n399 w_n1806_3170.n349 5.2005
R226 w_n1806_3170.n349 w_n1806_3170.n334 5.2005
R227 w_n1806_3170.n400 w_n1806_3170.n346 5.2005
R228 w_n1806_3170.n407 w_n1806_3170.n346 5.2005
R229 w_n1806_3170.n454 w_n1806_3170.n2 5.2005
R230 w_n1806_3170.n2 w_n1806_3170.n0 5.2005
R231 w_n1806_3170.n456 w_n1806_3170.n455 5.2005
R232 w_n1806_3170.n457 w_n1806_3170.n456 5.2005
R233 w_n1806_3170.n13 w_n1806_3170.n12 5.2005
R234 w_n1806_3170.n12 w_n1806_3170.n9 5.2005
R235 w_n1806_3170.n450 w_n1806_3170.n449 5.2005
R236 w_n1806_3170.n449 w_n1806_3170.n448 5.2005
R237 w_n1806_3170.n150 w_n1806_3170.n149 5.2005
R238 w_n1806_3170.n426 w_n1806_3170.n150 5.2005
R239 w_n1806_3170.n367 w_n1806_3170.n366 5.2005
R240 w_n1806_3170.n366 w_n1806_3170.n163 5.2005
R241 w_n1806_3170.n389 w_n1806_3170.n368 5.2005
R242 w_n1806_3170.n389 w_n1806_3170.n388 5.2005
R243 w_n1806_3170.n391 w_n1806_3170.n390 5.2005
R244 w_n1806_3170.n390 w_n1806_3170.n363 5.2005
R245 w_n1806_3170.n393 w_n1806_3170.n392 5.2005
R246 w_n1806_3170.n394 w_n1806_3170.n393 5.2005
R247 w_n1806_3170.n414 w_n1806_3170.n339 5.2005
R248 w_n1806_3170.n339 w_n1806_3170.n337 5.2005
R249 w_n1806_3170.n416 w_n1806_3170.n415 5.2005
R250 w_n1806_3170.n417 w_n1806_3170.n416 5.2005
R251 w_n1806_3170.n413 w_n1806_3170.n338 5.2005
R252 w_n1806_3170.n338 w_n1806_3170.n334 5.2005
R253 w_n1806_3170.n343 w_n1806_3170.n340 5.2005
R254 w_n1806_3170.n407 w_n1806_3170.n343 5.2005
R255 w_n1806_3170.n460 w_n1806_3170.n3 5.2005
R256 w_n1806_3170.n3 w_n1806_3170.n0 5.2005
R257 w_n1806_3170.n459 w_n1806_3170.n458 5.2005
R258 w_n1806_3170.n458 w_n1806_3170.n457 5.2005
R259 w_n1806_3170.n8 w_n1806_3170.n7 5.2005
R260 w_n1806_3170.n9 w_n1806_3170.n8 5.2005
R261 w_n1806_3170.n423 w_n1806_3170.n151 5.2005
R262 w_n1806_3170.n448 w_n1806_3170.n151 5.2005
R263 w_n1806_3170.n425 w_n1806_3170.n424 5.2005
R264 w_n1806_3170.n426 w_n1806_3170.n425 5.2005
R265 w_n1806_3170.n372 w_n1806_3170.n164 5.2005
R266 w_n1806_3170.n164 w_n1806_3170.n163 5.2005
R267 w_n1806_3170.n374 w_n1806_3170.n373 5.2005
R268 w_n1806_3170.n388 w_n1806_3170.n374 5.2005
R269 w_n1806_3170.n371 w_n1806_3170.n370 5.2005
R270 w_n1806_3170.n371 w_n1806_3170.n363 5.2005
R271 w_n1806_3170.n369 w_n1806_3170.n362 5.2005
R272 w_n1806_3170.n394 w_n1806_3170.n362 5.2005
R273 w_n1806_3170.n361 w_n1806_3170.n360 5.2005
R274 w_n1806_3170.n361 w_n1806_3170.n337 5.2005
R275 w_n1806_3170.n359 w_n1806_3170.n335 5.2005
R276 w_n1806_3170.n417 w_n1806_3170.n335 5.2005
R277 w_n1806_3170.n358 w_n1806_3170.n355 5.2005
R278 w_n1806_3170.n355 w_n1806_3170.n334 5.2005
R279 w_n1806_3170.n354 w_n1806_3170.n344 5.2005
R280 w_n1806_3170.n407 w_n1806_3170.n344 5.2005
R281 w_n1806_3170.n257 w_n1806_3170.n147 5.10898
R282 w_n1806_3170.n247 w_n1806_3170.n147 5.10898
R283 w_n1806_3170.n37 w_n1806_3170.n32 5.10026
R284 w_n1806_3170.n121 w_n1806_3170.n119 4.92413
R285 w_n1806_3170.n84 w_n1806_3170.n83 4.92413
R286 w_n1806_3170.n402 w_n1806_3170.n401 4.91528
R287 w_n1806_3170.n439 w_n1806_3170.n437 4.91528
R288 w_n1806_3170.n462 w_n1806_3170.n461 4.91528
R289 w_n1806_3170.n356 w_n1806_3170.n342 4.91528
R290 w_n1806_3170.n253 w_n1806_3170.n245 4.85463
R291 w_n1806_3170.n253 w_n1806_3170.n252 4.85463
R292 w_n1806_3170.n37 w_n1806_3170.n36 4.8155
R293 w_n1806_3170.n66 w_n1806_3170.n18 4.6445
R294 w_n1806_3170.n315 w_n1806_3170.n314 4.6445
R295 w_n1806_3170.n66 w_n1806_3170.n65 4.6445
R296 w_n1806_3170.n315 w_n1806_3170.n169 4.6445
R297 w_n1806_3170.n315 w_n1806_3170.n171 4.6445
R298 w_n1806_3170.n315 w_n1806_3170.n170 4.6445
R299 w_n1806_3170.n399 w_n1806_3170.n348 4.5005
R300 w_n1806_3170.n398 w_n1806_3170.n350 4.5005
R301 w_n1806_3170.n397 w_n1806_3170.n351 4.5005
R302 w_n1806_3170.n376 w_n1806_3170.n352 4.5005
R303 w_n1806_3170.n377 w_n1806_3170.n375 4.5005
R304 w_n1806_3170.n379 w_n1806_3170.n378 4.5005
R305 w_n1806_3170.n161 w_n1806_3170.n160 4.5005
R306 w_n1806_3170.n429 w_n1806_3170.n428 4.5005
R307 w_n1806_3170.n430 w_n1806_3170.n159 4.5005
R308 w_n1806_3170.n433 w_n1806_3170.n431 4.5005
R309 w_n1806_3170.n434 w_n1806_3170.n158 4.5005
R310 w_n1806_3170.n437 w_n1806_3170.n436 4.5005
R311 w_n1806_3170.n401 w_n1806_3170.n400 4.5005
R312 w_n1806_3170.n91 w_n1806_3170.n90 4.5005
R313 w_n1806_3170.n92 w_n1806_3170.n79 4.5005
R314 w_n1806_3170.n138 w_n1806_3170.n93 4.5005
R315 w_n1806_3170.n137 w_n1806_3170.n94 4.5005
R316 w_n1806_3170.n136 w_n1806_3170.n95 4.5005
R317 w_n1806_3170.n106 w_n1806_3170.n96 4.5005
R318 w_n1806_3170.n130 w_n1806_3170.n107 4.5005
R319 w_n1806_3170.n129 w_n1806_3170.n108 4.5005
R320 w_n1806_3170.n128 w_n1806_3170.n109 4.5005
R321 w_n1806_3170.n114 w_n1806_3170.n110 4.5005
R322 w_n1806_3170.n72 w_n1806_3170.n16 4.5005
R323 w_n1806_3170.n117 w_n1806_3170.n15 4.5005
R324 w_n1806_3170.n119 w_n1806_3170.n118 4.5005
R325 w_n1806_3170.n85 w_n1806_3170.n84 4.5005
R326 w_n1806_3170.n166 w_n1806_3170.n7 4.5005
R327 w_n1806_3170.n459 w_n1806_3170.n6 4.5005
R328 w_n1806_3170.n461 w_n1806_3170.n460 4.5005
R329 w_n1806_3170.n358 w_n1806_3170.n357 4.5005
R330 w_n1806_3170.n359 w_n1806_3170.n167 4.5005
R331 w_n1806_3170.n356 w_n1806_3170.n354 4.5005
R332 w_n1806_3170.n413 w_n1806_3170.n412 4.5005
R333 w_n1806_3170.n415 w_n1806_3170.n14 4.5005
R334 w_n1806_3170.n452 w_n1806_3170.n13 4.5005
R335 w_n1806_3170.n455 w_n1806_3170.n453 4.5005
R336 w_n1806_3170.n454 w_n1806_3170.n4 4.5005
R337 w_n1806_3170.n411 w_n1806_3170.n340 4.5005
R338 w_n1806_3170.n40 w_n1806_3170.n39 4.5005
R339 w_n1806_3170.n30 w_n1806_3170.n29 4.5005
R340 w_n1806_3170.n46 w_n1806_3170.n45 4.5005
R341 w_n1806_3170.n47 w_n1806_3170.n28 4.5005
R342 w_n1806_3170.n50 w_n1806_3170.n49 4.5005
R343 w_n1806_3170.n23 w_n1806_3170.n22 4.5005
R344 w_n1806_3170.n60 w_n1806_3170.n59 4.5005
R345 w_n1806_3170.n61 w_n1806_3170.n20 4.5005
R346 w_n1806_3170.n63 w_n1806_3170.n62 4.5005
R347 w_n1806_3170.n36 w_n1806_3170.n33 4.5005
R348 w_n1806_3170.n40 w_n1806_3170.n35 4.5005
R349 w_n1806_3170.n34 w_n1806_3170.n30 4.5005
R350 w_n1806_3170.n45 w_n1806_3170.n31 4.5005
R351 w_n1806_3170.n28 w_n1806_3170.n27 4.5005
R352 w_n1806_3170.n51 w_n1806_3170.n50 4.5005
R353 w_n1806_3170.n52 w_n1806_3170.n23 4.5005
R354 w_n1806_3170.n59 w_n1806_3170.n25 4.5005
R355 w_n1806_3170.n24 w_n1806_3170.n20 4.5005
R356 w_n1806_3170.n63 w_n1806_3170.n21 4.5005
R357 w_n1806_3170.n64 w_n1806_3170.n18 4.5005
R358 w_n1806_3170.n33 w_n1806_3170.n32 4.5005
R359 w_n1806_3170.n41 w_n1806_3170.n40 4.5005
R360 w_n1806_3170.n42 w_n1806_3170.n30 4.5005
R361 w_n1806_3170.n45 w_n1806_3170.n44 4.5005
R362 w_n1806_3170.n43 w_n1806_3170.n28 4.5005
R363 w_n1806_3170.n50 w_n1806_3170.n26 4.5005
R364 w_n1806_3170.n56 w_n1806_3170.n23 4.5005
R365 w_n1806_3170.n59 w_n1806_3170.n58 4.5005
R366 w_n1806_3170.n57 w_n1806_3170.n20 4.5005
R367 w_n1806_3170.n63 w_n1806_3170.n19 4.5005
R368 w_n1806_3170.n65 w_n1806_3170.n64 4.5005
R369 w_n1806_3170.n451 w_n1806_3170.n450 4.5005
R370 w_n1806_3170.n259 w_n1806_3170.n256 4.5005
R371 w_n1806_3170.n255 w_n1806_3170.n238 4.5005
R372 w_n1806_3170.n263 w_n1806_3170.n244 4.5005
R373 w_n1806_3170.n243 w_n1806_3170.n230 4.5005
R374 w_n1806_3170.n267 w_n1806_3170.n236 4.5005
R375 w_n1806_3170.n235 w_n1806_3170.n223 4.5005
R376 w_n1806_3170.n272 w_n1806_3170.n228 4.5005
R377 w_n1806_3170.n215 w_n1806_3170.n214 4.5005
R378 w_n1806_3170.n277 w_n1806_3170.n276 4.5005
R379 w_n1806_3170.n278 w_n1806_3170.n211 4.5005
R380 w_n1806_3170.n288 w_n1806_3170.n287 4.5005
R381 w_n1806_3170.n279 w_n1806_3170.n202 4.5005
R382 w_n1806_3170.n295 w_n1806_3170.n208 4.5005
R383 w_n1806_3170.n207 w_n1806_3170.n194 4.5005
R384 w_n1806_3170.n299 w_n1806_3170.n200 4.5005
R385 w_n1806_3170.n199 w_n1806_3170.n186 4.5005
R386 w_n1806_3170.n303 w_n1806_3170.n192 4.5005
R387 w_n1806_3170.n191 w_n1806_3170.n178 4.5005
R388 w_n1806_3170.n308 w_n1806_3170.n184 4.5005
R389 w_n1806_3170.n183 w_n1806_3170.n173 4.5005
R390 w_n1806_3170.n312 w_n1806_3170.n176 4.5005
R391 w_n1806_3170.n252 w_n1806_3170.n246 4.5005
R392 w_n1806_3170.n259 w_n1806_3170.n251 4.5005
R393 w_n1806_3170.n250 w_n1806_3170.n238 4.5005
R394 w_n1806_3170.n263 w_n1806_3170.n242 4.5005
R395 w_n1806_3170.n241 w_n1806_3170.n230 4.5005
R396 w_n1806_3170.n267 w_n1806_3170.n234 4.5005
R397 w_n1806_3170.n233 w_n1806_3170.n223 4.5005
R398 w_n1806_3170.n272 w_n1806_3170.n227 4.5005
R399 w_n1806_3170.n226 w_n1806_3170.n215 4.5005
R400 w_n1806_3170.n276 w_n1806_3170.n219 4.5005
R401 w_n1806_3170.n218 w_n1806_3170.n211 4.5005
R402 w_n1806_3170.n288 w_n1806_3170.n213 4.5005
R403 w_n1806_3170.n280 w_n1806_3170.n202 4.5005
R404 w_n1806_3170.n295 w_n1806_3170.n206 4.5005
R405 w_n1806_3170.n205 w_n1806_3170.n194 4.5005
R406 w_n1806_3170.n299 w_n1806_3170.n198 4.5005
R407 w_n1806_3170.n197 w_n1806_3170.n186 4.5005
R408 w_n1806_3170.n303 w_n1806_3170.n190 4.5005
R409 w_n1806_3170.n189 w_n1806_3170.n178 4.5005
R410 w_n1806_3170.n308 w_n1806_3170.n182 4.5005
R411 w_n1806_3170.n181 w_n1806_3170.n173 4.5005
R412 w_n1806_3170.n312 w_n1806_3170.n175 4.5005
R413 w_n1806_3170.n313 w_n1806_3170.n170 4.5005
R414 w_n1806_3170.n246 w_n1806_3170.n245 4.5005
R415 w_n1806_3170.n260 w_n1806_3170.n259 4.5005
R416 w_n1806_3170.n261 w_n1806_3170.n238 4.5005
R417 w_n1806_3170.n263 w_n1806_3170.n262 4.5005
R418 w_n1806_3170.n230 w_n1806_3170.n229 4.5005
R419 w_n1806_3170.n268 w_n1806_3170.n267 4.5005
R420 w_n1806_3170.n269 w_n1806_3170.n223 4.5005
R421 w_n1806_3170.n272 w_n1806_3170.n271 4.5005
R422 w_n1806_3170.n270 w_n1806_3170.n215 4.5005
R423 w_n1806_3170.n276 w_n1806_3170.n221 4.5005
R424 w_n1806_3170.n220 w_n1806_3170.n211 4.5005
R425 w_n1806_3170.n288 w_n1806_3170.n209 4.5005
R426 w_n1806_3170.n293 w_n1806_3170.n202 4.5005
R427 w_n1806_3170.n295 w_n1806_3170.n294 4.5005
R428 w_n1806_3170.n194 w_n1806_3170.n193 4.5005
R429 w_n1806_3170.n300 w_n1806_3170.n299 4.5005
R430 w_n1806_3170.n301 w_n1806_3170.n186 4.5005
R431 w_n1806_3170.n303 w_n1806_3170.n302 4.5005
R432 w_n1806_3170.n178 w_n1806_3170.n177 4.5005
R433 w_n1806_3170.n309 w_n1806_3170.n308 4.5005
R434 w_n1806_3170.n310 w_n1806_3170.n173 4.5005
R435 w_n1806_3170.n312 w_n1806_3170.n311 4.5005
R436 w_n1806_3170.n313 w_n1806_3170.n171 4.5005
R437 w_n1806_3170.n247 w_n1806_3170.n246 4.5005
R438 w_n1806_3170.n259 w_n1806_3170.n249 4.5005
R439 w_n1806_3170.n248 w_n1806_3170.n238 4.5005
R440 w_n1806_3170.n263 w_n1806_3170.n240 4.5005
R441 w_n1806_3170.n239 w_n1806_3170.n230 4.5005
R442 w_n1806_3170.n267 w_n1806_3170.n232 4.5005
R443 w_n1806_3170.n231 w_n1806_3170.n223 4.5005
R444 w_n1806_3170.n272 w_n1806_3170.n225 4.5005
R445 w_n1806_3170.n224 w_n1806_3170.n215 4.5005
R446 w_n1806_3170.n276 w_n1806_3170.n217 4.5005
R447 w_n1806_3170.n216 w_n1806_3170.n211 4.5005
R448 w_n1806_3170.n288 w_n1806_3170.n212 4.5005
R449 w_n1806_3170.n283 w_n1806_3170.n202 4.5005
R450 w_n1806_3170.n295 w_n1806_3170.n204 4.5005
R451 w_n1806_3170.n203 w_n1806_3170.n194 4.5005
R452 w_n1806_3170.n299 w_n1806_3170.n196 4.5005
R453 w_n1806_3170.n195 w_n1806_3170.n186 4.5005
R454 w_n1806_3170.n303 w_n1806_3170.n188 4.5005
R455 w_n1806_3170.n187 w_n1806_3170.n178 4.5005
R456 w_n1806_3170.n308 w_n1806_3170.n180 4.5005
R457 w_n1806_3170.n179 w_n1806_3170.n173 4.5005
R458 w_n1806_3170.n312 w_n1806_3170.n174 4.5005
R459 w_n1806_3170.n313 w_n1806_3170.n169 4.5005
R460 w_n1806_3170.n257 w_n1806_3170.n246 4.5005
R461 w_n1806_3170.n259 w_n1806_3170.n258 4.5005
R462 w_n1806_3170.n238 w_n1806_3170.n237 4.5005
R463 w_n1806_3170.n264 w_n1806_3170.n263 4.5005
R464 w_n1806_3170.n265 w_n1806_3170.n230 4.5005
R465 w_n1806_3170.n267 w_n1806_3170.n266 4.5005
R466 w_n1806_3170.n223 w_n1806_3170.n222 4.5005
R467 w_n1806_3170.n273 w_n1806_3170.n272 4.5005
R468 w_n1806_3170.n274 w_n1806_3170.n215 4.5005
R469 w_n1806_3170.n276 w_n1806_3170.n275 4.5005
R470 w_n1806_3170.n211 w_n1806_3170.n210 4.5005
R471 w_n1806_3170.n289 w_n1806_3170.n288 4.5005
R472 w_n1806_3170.n202 w_n1806_3170.n201 4.5005
R473 w_n1806_3170.n296 w_n1806_3170.n295 4.5005
R474 w_n1806_3170.n297 w_n1806_3170.n194 4.5005
R475 w_n1806_3170.n299 w_n1806_3170.n298 4.5005
R476 w_n1806_3170.n186 w_n1806_3170.n185 4.5005
R477 w_n1806_3170.n304 w_n1806_3170.n303 4.5005
R478 w_n1806_3170.n305 w_n1806_3170.n178 4.5005
R479 w_n1806_3170.n308 w_n1806_3170.n307 4.5005
R480 w_n1806_3170.n306 w_n1806_3170.n173 4.5005
R481 w_n1806_3170.n312 w_n1806_3170.n172 4.5005
R482 w_n1806_3170.n314 w_n1806_3170.n313 4.5005
R483 w_n1806_3170.n423 w_n1806_3170.n422 4.5005
R484 w_n1806_3170.n331 w_n1806_3170.n330 4.5005
R485 w_n1806_3170.n420 w_n1806_3170.n419 4.5005
R486 w_n1806_3170.n421 w_n1806_3170.n326 4.5005
R487 w_n1806_3170.n445 w_n1806_3170.n156 4.5005
R488 w_n1806_3170.n444 w_n1806_3170.n157 4.5005
R489 w_n1806_3170.n443 w_n1806_3170.n441 4.5005
R490 w_n1806_3170.n405 w_n1806_3170.n404 4.5005
R491 w_n1806_3170.n321 w_n1806_3170.n316 4.26081
R492 w_n1806_3170.n89 w_n1806_3170.n88 3.97982
R493 w_n1806_3170.n124 w_n1806_3170.n113 3.97982
R494 w_n1806_3170.n256 w_n1806_3170.n254 2.472
R495 w_n1806_3170.n39 w_n1806_3170.n38 2.46378